
**** 04/20/26 14:40:54 **** PSpice 25.1.0 (28 January 2026) *** ID# 0 ********

 ** Profile: "SCHEMATIC1-S2"  [ D:\dcser\Documents\Universidad\ISE\B2\amp_ins\amp_ins-pspicefiles\schematic1\s2.sim ] 


 ****     CIRCUIT DESCRIPTION


******************************************************************************




** Creating circuit file "S2.cir" 
** WARNING: THIS AUTOMATICALLY GENERATED FILE MAY BE OVERWRITTEN BY SUBSEQUENT SIMULATIONS

*Libraries: 
* Profile Libraries :
* Local Libraries :
* From [PSPICE NETLIST] section of C:\Users\dcser\AppData\Roaming\SPB_Data\cdssetup\OrCAD_PSpice\25.1.0\PSpice.ini file:
.lib "D:\dcser\Documents\Universidad\ISE\B2\sboc084g\OPAx333.LIB" 
.lib "D:\dcser\Documents\Universidad\6暝2S\ISE\B2\sloj050b\OP07C.LIB" 
.lib "D:\dcser\Documents\Universidad\ISE\B2\sglm009d\lmx24_lm2902.lib" 
.lib "D:\dcser\Documents\Universidad\ISE\B2\sloc063b\TLV2372_PSPICE_AIO\TLV2372.LIB" 
.lib "C:\Cadence\OrCADX_25.1\tools\pspice\Library\opamp.lib" 
.lib "D:\dcser\Documents\Universidad\ISE\B2\snom268c\lmx58_lm2904.lib" 
.lib "nom.lib" 

*Analysis directives: 
.TRAN  0 10s 0 
.OPTIONS ADVCONV
.PROBE64 V(alias(*)) I(alias(*)) W(alias(*)) D(alias(*)) NOISE(alias(*)) 
.INC "..\SCHEMATIC1.net" 



**** INCLUDING SCHEMATIC1.net ****
* source AMP_INS
R_R1         N00716 N00513  10k TC=0,0 
R_R2         N00721 N00716  1k TC=0,0 
R_R3         N04795 N00721  10k TC=0,0 
R_R4         N00520 N00513  10k TC=0,0 
R_R5         N00646 N00520  10k TC=0,0 
R_R6         N04771 N04795  10k TC=0,0 
R_R7         0 N04771  10k TC=0,0 
R_R8         N01164 N01152  0.1 TC=0,0 
V_V1         VCC 0 5Vdc
R_R9         0 N01164  10k TC=0,0 
R_R10         0 N01152  10k TC=0,0 
I_I1         N01152 N01164 DC 1.5Adc  
X_U14         N01152 N00716 VCC 0 N00513 OPAX333
X_U15         N01164 N00721 VCC 0 N04795 OPAX333
X_U16         N04771 N00520 VCC 0 N00646 OPAX333

**** RESUMING S2.cir ****
.END

**** 04/20/26 14:40:54 **** PSpice 25.1.0 (28 January 2026) *** ID# 0 ********

 ** Profile: "SCHEMATIC1-S2"  [ D:\dcser\Documents\Universidad\ISE\B2\amp_ins\amp_ins-pspicefiles\schematic1\s2.sim ] 


 ****     Resistor MODEL PARAMETERS


******************************************************************************




               X_U14.R_NOISELESS 
  T_Measured   27            
   T_Current -273.15         
           R    1            


               X_U15.R_NOISELESS 
  T_Measured   27            
   T_Current -273.15         
           R    1            


               X_U16.R_NOISELESS 
  T_Measured   27            
   T_Current -273.15         
           R    1            


**** 04/20/26 14:40:54 **** PSpice 25.1.0 (28 January 2026) *** ID# 0 ********

 ** Profile: "SCHEMATIC1-S2"  [ D:\dcser\Documents\Universidad\ISE\B2\amp_ins\amp_ins-pspicefiles\schematic1\s2.sim ] 


 ****     Voltage Controlled Switch MODEL PARAMETERS


******************************************************************************




               X_U14.X_S1._S1  X_U14.X_S2._S2  
         RON     .01             .01         
        ROFF    1.000000E+09    1.000000E+09 
         VON     .01             .01         
        VOFF    0               0            


               X_U14.X_U20.ESD_SW 
         RON   50            
        ROFF    1.000000E+12 
         VON     .7          
        VOFF     .65         


               X_U14.X_U21.ESD_SW 
         RON   50            
        ROFF    1.000000E+12 
         VON     .5          
        VOFF     .45         


               X_U14.X_U25.OL_SW 
         RON    1.000000E-03 
        ROFF    1.000000E+09 
         VON     .9          
        VOFF     .8          


               X_U14.X_U5.ESD_SW               X_U15.X_S1._S1  X_U15.X_S2._S2  
         RON   50                                .01             .01         
        ROFF    1.000000E+12                    1.000000E+09    1.000000E+09 
         VON     .5                              .01             .01         
        VOFF     .45                            0               0            


               X_U15.X_U20.ESD_SW 
         RON   50            
        ROFF    1.000000E+12 
         VON     .7          
        VOFF     .65         


               X_U15.X_U21.ESD_SW 
         RON   50            
        ROFF    1.000000E+12 
         VON     .5          
        VOFF     .45         


               X_U15.X_U25.OL_SW 
         RON    1.000000E-03 
        ROFF    1.000000E+09 
         VON     .9          
        VOFF     .8          


               X_U15.X_U5.ESD_SW               X_U16.X_S1._S1  X_U16.X_S2._S2  
         RON   50                                .01             .01         
        ROFF    1.000000E+12                    1.000000E+09    1.000000E+09 
         VON     .5                              .01             .01         
        VOFF     .45                            0               0            


               X_U16.X_U20.ESD_SW 
         RON   50            
        ROFF    1.000000E+12 
         VON     .7          
        VOFF     .65         


               X_U16.X_U21.ESD_SW 
         RON   50            
        ROFF    1.000000E+12 
         VON     .5          
        VOFF     .45         


               X_U16.X_U25.OL_SW 
         RON    1.000000E-03 
        ROFF    1.000000E+09 
         VON     .9          
        VOFF     .8          


               X_U16.X_U5.ESD_SW 
         RON   50            
        ROFF    1.000000E+12 
         VON     .5          
        VOFF     .45         


Starting pseudo-transient algorithm.

INFO(ORPSIM-16594): To improve Pseudotransient Convergence and Performance, set following options to relax stabilization criteria for capacitor currents and inductor voltages: PTRANABSTOL=1e-5, PTRANVNTOL=1e-4

ERROR -- Convergence problem in transient bias point calculation


  Last node voltages tried were:

 NODE   VOLTAGE     NODE   VOLTAGE     NODE   VOLTAGE     NODE   VOLTAGE


(  VCC)    5.0000  (N00513)     .0296 (N00520)     .0582 (N00646)     .0867     

(N00716)     .0709 (N00721)     .0750 (N01152)    -.0750 (N01164)     .0750     

(N04771)     .0581 (N04795)     .1163 (X_U14.MID)     .1026                     

(X_U14.V11)     .4276                 (X_U14.V12)     .1026                     

(X_U15.MID)     .1026                 (X_U15.V11)     .1026                     

(X_U15.V12)     .1026                 (X_U16.MID)     .1026                     

(X_U16.V11)     .1026                 (X_U16.V12)     .1026                     

(X_U14.ESDN)     .0709                (X_U14.ESDP)    -.0750                    

(X_U14.VCLP)     .0295                (X_U15.ESDN)     .0750                    

(X_U15.ESDP)     .0750                (X_U15.VCLP)     .1177                    

(X_U16.ESDN)     .0582                (X_U16.ESDP)     .0581                    

(X_U16.VCLP)     .0872                (X_U14.CLAMP)  -11.2040                   

(X_U14.VCC_B)    5.0000               (X_U14.VEE_B) 102.6E-09                   

(X_U14.VIMON)     .0956               (X_U15.CLAMP)     .1177                   

(X_U15.VCC_B)    5.0000               (X_U15.VEE_B) 102.6E-09                   

(X_U15.VIMON)     .1126               (X_U16.CLAMP)     .0872                   

(X_U16.VCC_B)    5.0000               (X_U16.VEE_B) 102.6E-09                   

(X_U16.VIMON)     .1055               (X_U14.VOUT_S)     .0296                  

(X_U14.VSENSE)  -11.2040              (X_U15.VOUT_S)     .1163                  

(X_U15.VSENSE)     .1177              (X_U16.VOUT_S)     .0867                  

(X_U16.VSENSE)     .0872              (X_U14.VCC_CLP)    4.9600                 

(X_U14.VEE_CLP)     .0408             (X_U14.X_U36.3)    0.0000                 

(X_U14.X_U36.5)    0.0000             (X_U14.X_U37.3)    0.0000                 

(X_U14.X_U37.5)    0.0000             (X_U14.X_U38.5)    0.0000                 

(X_U15.VCC_CLP)    4.9591             (X_U15.VEE_CLP)     .0408                 

(X_U15.X_U36.3)    0.0000             (X_U15.X_U36.5)    0.0000                 

(X_U15.X_U37.3)    0.0000             (X_U15.X_U37.5)    0.0000                 

(X_U15.X_U38.5)    0.0000             (X_U16.VCC_CLP)    4.9597                 

(X_U16.VEE_CLP)     .0408             (X_U16.X_U36.3)    0.0000                 

(X_U16.X_U36.5)    0.0000             (X_U16.X_U37.3)    0.0000                 

(X_U16.X_U37.5)    0.0000             (X_U16.X_U38.5)    0.0000                 

(X_U14.CL_CLAMP)     .0295            (X_U14.N2986935)    -.0750                

(X_U14.N2986947)     .1026            (X_U14.N2986949)    -.0750                

(X_U14.N2986957)    -.0750            (X_U14.N2986973)     .1026                

(X_U14.N2986975)     .1026            (X_U14.N2986977)    -.0750                

(X_U14.N2986981)    -.0750            (X_U14.N2987013)     .0709                

(X_U14.N2987017)    5.1000            (X_U14.N2987029)    -.1000                

(X_U14.N2987037)    -.0750            (X_U14.N2987051)    -.0750                

(X_U14.N2987061)  -14.4840            (X_U14.N2987123)     .1026                

(X_U14.N2987135)     .1026            (X_U14.N2987157)     .1139                

(X_U14.N2987159)     .1139            (X_U14.N2987201)    5.1026                

(X_U14.N2987203)     .1026            (X_U14.N2987205)     .1026                

(X_U14.N2987225)     .1026            (X_U14.N2987231)     .1026                

(X_U14.N2987243)   -9.8739            (X_U14.N2987295)  169.1000                

(X_U14.N2987299)     .1026            (X_U14.N2987301)     .1026                

(X_U14.N2987319)     .1026            (X_U14.N2987325)     .1026                

(X_U14.N2987337) -188.9000            (X_U14.N2987363)  -11.2040                

(X_U14.N2987391)    4.9600            (X_U14.N2987395)     .0408                

(X_U14.N2987423)     .0408            (X_U14.N2987427)    4.9600                

(X_U14.N2987487)     .4276            (X_U14.N2987493)     .1026                

(X_U14.N2987499)    1.1026            (X_U14.N2987541)     .0956                

(X_U14.N2987553)     .0296            (X_U14.N2987623)     .0296                

(X_U14.N2987655)  -11.1960            (X_U14.N2987675)   10.9290                

(X_U14.N2987683)  -10.8710            (X_U14.N2987687)  -11.1960                

(X_U14.N2987711)   10.9290            (X_U14.N2987719)   10.9290                

(X_U14.N2987763)     .1026            (X_U14.N2987785)    5.0000                

(X_U14.N2987801) 102.7E-09            (X_U14.N3108913)  -11.2040                

(X_U14.N3108917)  -11.2040            (X_U14.N3108949)  -11.2040                

(X_U14.N3109045)  -11.2120            (X_U14.N3116457)     .0295                

(X_U14.N3116503)     .0713            (X_U14.N3116515)     .0713                

(X_U14.N3116655)   -3.3794            (X_U14.N3116665)     .1026                

(X_U14.N3116675)   -3.4069            (X_U14.N3116685)   -3.3799                

(X_U14.N3116957)   -3.3794            (X_U14.N3126023)     .0861                

(X_U14.N3126031)     .1026            (X_U14.N3128929)     .0923                

(X_U14.N3128939)     .1026            (X_U14.N3130349)     .1026                

(X_U14.N3130359)     .1067            (X_U14.N3202153)   -3.3798                

(X_U14.N3236810)     .1026            (X_U14.N3236820)     .1067                

(X_U14.N3330020)  -15.0600            (X_U14.N3330030)  -11.2070                

(X_U14.N3330557)  -32.6380            (X_U14.N3330567)  -11.2080                

(X_U14.N3331119)  -11.9540            (X_U14.N3342059)   -2.5659                

(X_U14.N3344856)   -3.3798            (X_U14.N3344868)   -3.3798                

(X_U14.N3355872)     .1026            (X_U14.N3355880)     .1026                

(X_U14.N3369111)     .1026            (X_U14.N3369121)     .1026                

(X_U15.CL_CLAMP)     .1177            (X_U15.N2986935)     .0750                

(X_U15.N2986947)     .1026            (X_U15.N2986949)     .0750                

(X_U15.N2986957)     .0750            (X_U15.N2986973)     .1026                

(X_U15.N2986975)     .1026            (X_U15.N2986977)     .0750                

(X_U15.N2986981)     .0750            (X_U15.N2987013)     .0750                

(X_U15.N2987017)    5.1000            (X_U15.N2987029)    -.1000                

(X_U15.N2987037)     .0750            (X_U15.N2987051)     .0750                

(X_U15.N2987061)     .1026            (X_U15.N2987123)     .1026                

(X_U15.N2987135)     .1026            (X_U15.N2987157)     .1026                

(X_U15.N2987159)     .1026            (X_U15.N2987201)    5.1026                

(X_U15.N2987203)     .1026            (X_U15.N2987205)     .1026                

(X_U15.N2987225)     .1026            (X_U15.N2987231)     .1026                

(X_U15.N2987243)   -9.8739            (X_U15.N2987295)  169.1000                

(X_U15.N2987299)     .1026            (X_U15.N2987301)     .1026                

(X_U15.N2987319)     .1026            (X_U15.N2987325)     .1026                

(X_U15.N2987337) -188.9000            (X_U15.N2987363)     .1177                

(X_U15.N2987391)    4.9591            (X_U15.N2987395)     .0408                

(X_U15.N2987423)     .0408            (X_U15.N2987427)    4.9591                

(X_U15.N2987487)     .1026            (X_U15.N2987493)     .1026                

(X_U15.N2987499)     .1026            (X_U15.N2987541)     .1126                

(X_U15.N2987553)     .1163            (X_U15.N2987623)     .1163                

(X_U15.N2987655)  -10.7820            (X_U15.N2987675)   11.0180                

(X_U15.N2987683)  -10.7820            (X_U15.N2987687)  -10.7820                

(X_U15.N2987711)   11.0180            (X_U15.N2987719)   11.0180                

(X_U15.N2987763)     .1026            (X_U15.N2987785)    5.0000                

(X_U15.N2987801) 102.7E-09            (X_U15.N3108913)     .1177                

(X_U15.N3108917)     .1177            (X_U15.N3108949)     .1177                

(X_U15.N3109045)     .1177            (X_U15.N3116457)     .1177                

(X_U15.N3116503)     .6394            (X_U15.N3116515)     .1377                

(X_U15.N3116655)    4.0656            (X_U15.N3116665)     .1027                

(X_U15.N3116675)    4.0391            (X_U15.N3116685)    4.0662                

(X_U15.N3116957)    4.0656            (X_U15.N3126023)     .1000                

(X_U15.N3126031)     .1026            (X_U15.N3128929)     .0923                

(X_U15.N3128939)     .1026            (X_U15.N3130349)     .1026                

(X_U15.N3130359)     .1067            (X_U15.N3202153)    4.0661                

(X_U15.N3236810)     .1026            (X_U15.N3236820)     .1067                

(X_U15.N3330020)     .1229            (X_U15.N3330030)     .1177                

(X_U15.N3330557)     .1464            (X_U15.N3330567)     .1177                

(X_U15.N3331119)     .1187            (X_U15.N3342059)    3.1397                

(X_U15.N3344856)    4.0660            (X_U15.N3344868)    4.0660                

(X_U15.N3355872)     .1026            (X_U15.N3355880)     .1026                

(X_U15.N3369111)     .1026            (X_U15.N3369121)     .1026                

(X_U16.CL_CLAMP)     .0872            (X_U16.N2986935)     .0581                

(X_U16.N2986947)     .1026            (X_U16.N2986949)     .0581                

(X_U16.N2986957)     .0581            (X_U16.N2986973)     .1026                

(X_U16.N2986975)     .1026            (X_U16.N2986977)     .0581                

(X_U16.N2986981)     .0582            (X_U16.N2987013)     .0582                

(X_U16.N2987017)    5.1000            (X_U16.N2987029)    -.1000                

(X_U16.N2987037)     .0582            (X_U16.N2987051)     .0582                

(X_U16.N2987061)     .1026            (X_U16.N2987123)     .1026                

(X_U16.N2987135)     .1026            (X_U16.N2987157)     .1026                

(X_U16.N2987159)     .1026            (X_U16.N2987201)    5.1026                

(X_U16.N2987203)     .1026            (X_U16.N2987205)     .1026                

(X_U16.N2987225)     .1026            (X_U16.N2987231)     .1026                

(X_U16.N2987243)   -9.8739            (X_U16.N2987295)  169.1000                

(X_U16.N2987299)     .1026            (X_U16.N2987301)     .1026                

(X_U16.N2987319)     .1026            (X_U16.N2987325)     .1026                

(X_U16.N2987337) -188.9000            (X_U16.N2987363)     .0872                

(X_U16.N2987391)    4.9597            (X_U16.N2987395)     .0408                

(X_U16.N2987423)     .0408            (X_U16.N2987427)    4.9597                

(X_U16.N2987487)     .1026            (X_U16.N2987493)     .1026                

(X_U16.N2987499)     .1026            (X_U16.N2987541)     .1055                

(X_U16.N2987553)     .0867            (X_U16.N2987623)     .0867                

(X_U16.N2987655)  -10.8130            (X_U16.N2987675)   10.9870                

(X_U16.N2987683)  -10.8130            (X_U16.N2987687)  -10.8130                

(X_U16.N2987711)   10.9870            (X_U16.N2987719)   10.9870                

(X_U16.N2987763)     .1026            (X_U16.N2987785)    5.0000                

(X_U16.N2987801) 102.7E-09            (X_U16.N3108913)     .0872                

(X_U16.N3108917)     .0872            (X_U16.N3108949)     .0872                

(X_U16.N3109045)     .0872            (X_U16.N3116457)     .0872                

(X_U16.N3116503)     .2730            (X_U16.N3116515)     .1106                

(X_U16.N3116655)    1.0233            (X_U16.N3116665)     .1026                

(X_U16.N3116675)     .9963            (X_U16.N3116685)    1.0234                

(X_U16.N3116957)    1.0233            (X_U16.N3126023)     .0985                

(X_U16.N3126031)     .1026            (X_U16.N3128929)     .0923                

(X_U16.N3128939)     .1026            (X_U16.N3130349)     .1026                

(X_U16.N3130359)     .1067            (X_U16.N3202153)    1.0234                

(X_U16.N3236810)     .1026            (X_U16.N3236820)     .1067                

(X_U16.N3330020)     .0819            (X_U16.N3330030)     .0872                

(X_U16.N3330557)     .0580            (X_U16.N3330567)     .0872                

(X_U16.N3331119)     .0862            (X_U16.N3342059)     .8082                

(X_U16.N3344856)    1.0233            (X_U16.N3344868)    1.0233                

(X_U16.N3355872)     .1026            (X_U16.N3355880)     .1026                

(X_U16.N3369111)     .1026            (X_U16.N3369121)     .1026                

(X_U14.N32898091)   -3.3798           (X_U14.N33449121)   -3.3798               

(X_U15.N32898091)    4.0662           (X_U15.N33449121)    4.0660               

(X_U16.N32898091)    1.0235           (X_U16.N33449121)    1.0234               

(X_U14.CLAW_CLAMP)     .0295          (X_U15.CLAW_CLAMP)     .1177              

(X_U16.CLAW_CLAMP)     .0872          (X_U14.SW_OL_OPAx333)    1.1026           

(X_U15.SW_OL_OPAx333)     .1026       (X_U16.SW_OL_OPAx333)     .1026       


  These voltages failed to converge:

    V(X_U14.N3126023)         =     2.261V  \    86.09mV
    V(X_U14.N3126031)         =     2.500V  \   102.61mV
    V(X_U14.N3116503)         =    -27.36V  \    71.29mV
    V(X_U14.N3116515)         =     2.234V  \    71.29mV
    V(X_U14.N2987763)         =     2.500V  \   102.61mV
    V(X_U14.N2987801)         =    2.503uV  \   102.71nV
    V(X_U14.MID)              =     2.500V  \   102.61mV
    V(X_U14.N2987135)         =     2.500V  \   102.61mV
    V(X_U14.N2987159)         =     2.511V  \   113.85mV
    V(X_U14.N2987205)         =     2.500V  \   102.61mV
    V(X_U14.N2987225)         =     2.500V  \   102.61mV
    V(X_U14.N3128929)         =     2.250V  \    92.35mV
    V(X_U14.N3128939)         =     2.500V  \   102.61mV
    V(X_U14.N2987301)         =     2.500V  \   102.61mV
    V(X_U14.N2987319)         =     2.500V  \   102.61mV
    V(X_U14.N2987363)         =    -11.28V  \    -11.20V
    V(X_U14.N2987487)         =     2.825V  \   427.60mV
    V(X_U14.N2987493)         =     2.500V  \   102.61mV
    V(X_U14.SW_OL_OPAx333)    =     3.500V  \     1.103V
    V(X_U14.VIMON)            =     2.493V  \    95.62mV
    V(X_U14.N3130359)         =     2.502V  \   106.69mV
    V(X_U14.N3130349)         =     2.500V  \   102.62mV
    V(X_U14.CLAMP)            =    -11.28V  \    -11.20V
    V(X_U14.N32898091)        =    -27.36V  \    -3.380V
    V(X_U14.N3116655)         =    -27.35V  \    -3.379V
    V(X_U14.N3116665)         =     2.500V  \   102.57mV
    V(X_U14.N3330020)         =    -15.98V  \    -15.06V
    V(X_U14.N3330030)         =    -11.29V  \    -11.21V
    V(X_U14.N3108917)         =    -11.28V  \    -11.20V
    V(X_U14.N3108949)         =    -11.28V  \    -11.20V
    V(X_U14.VCLP)             =   -50.36mV  \    29.49mV
    V(X_U14.N3202153)         =    -27.36V  \    -3.380V
    V(X_U14.N3342059)         =    -20.38V  \    -2.566V
    V(X_U14.N3108913)         =    -11.28V  \    -11.20V
    V(X_U14.N3236820)         =     2.502V  \   106.69mV
    V(X_U14.N3236810)         =     2.500V  \   102.62mV
    V(X_U14.N3330557)         =    -37.41V  \    -32.64V
    V(X_U14.N3330567)         =    -11.29V  \    -11.21V
    V(X_U14.N3331119)         =    -12.20V  \    -11.95V
    V(X_U14.N3109045)         =    -11.29V  \    -11.21V
    V(X_U14.N33449121)        =    -27.36V  \    -3.380V
    V(X_U14.N3355872)         =     2.500V  \   102.61mV
    V(X_U14.N3355880)         =     2.500V  \   102.61mV
    V(X_U14.N3369111)         =     2.500V  \   102.61mV
    V(X_U14.N3369121)         =     2.500V  \   102.61mV
    V(X_U14.N3116457)         =   -50.36mV  \    29.49mV
    V(X_U14.CL_CLAMP)         =   -50.36mV  \    29.49mV
    V(X_U14.CLAW_CLAMP)       =   -50.36mV  \    29.49mV
    V(X_U14.N3116675)         =    -27.36V  \    -3.407V
    V(X_U14.VEE_B)            =    2.500uV  \   102.61nV
    V(X_U14.N2986947)         =     2.500V  \   102.61mV
    V(X_U14.N2987687)         =    -11.28V  \    -11.20V
    V(X_U14.N2987683)         =    -10.95V  \    -10.87V
    V(X_U14.N2987711)         =     10.85V  \     10.93V
    V(X_U14.N2987719)         =     10.85V  \     10.93V
    V(X_U14.N3344856)         =    -27.36V  \    -3.380V
    V(X_U14.VSENSE)           =    -11.28V  \    -11.20V
    V(X_U14.N3116685)         =    -27.36V  \    -3.380V
    V(X_U14.N2986975)         =     2.500V  \   102.62mV
    V(X_U14.N2986973)         =     2.500V  \   102.61mV
    V(X_U14.N3344868)         =    -27.36V  \    -3.380V
    V(X_U14.N2987061)         =    -12.09V  \    -14.48V
    V(X_U14.N3116957)         =    -27.35V  \    -3.379V
    V(X_U14.N2987123)         =     2.500V  \   102.61mV
    V(X_U14.N2987157)         =     2.511V  \   113.85mV
    V(X_U14.N2987201)         =     7.500V  \     5.103V
    V(X_U14.N2987203)         =     2.500V  \   102.61mV
    V(X_U14.N2987231)         =     2.500V  \   102.61mV
    V(X_U14.N2987243)         =    -7.477V  \     -9.87V
    V(X_U14.N2987295)         =    171.50V  \    169.10V
    V(X_U14.N2987299)         =     2.500V  \   102.61mV
    V(X_U14.N2987325)         =     2.500V  \   102.61mV
    V(X_U14.N2987337)         =   -186.50V  \   -188.90V
    V(X_U14.V11)              =     2.825V  \   427.60mV
    V(X_U14.V12)              =     2.500V  \   102.61mV
    V(X_U14.N2987499)         =     3.500V  \     1.103V
    V(X_U14.N2987541)         =     2.493V  \    95.62mV
    V(X_U15.N3126023)         =     2.274V  \   100.04mV
    V(X_U15.N3126031)         =     2.500V  \   102.61mV
    V(X_U15.N3116503)         =    -19.91V  \   639.44mV
    V(X_U15.N3116515)         =     2.300V  \   137.75mV
    V(X_U15.N2987763)         =     2.500V  \   102.61mV
    V(X_U15.N2987801)         =    2.503uV  \   102.71nV
    V(X_U15.MID)              =     2.500V  \   102.61mV
    V(X_U15.N2987135)         =     2.500V  \   102.61mV
    V(X_U15.N2987159)         =     2.500V  \   102.61mV
    V(X_U15.N2987205)         =     2.500V  \   102.61mV
    V(X_U15.N2987225)         =     2.500V  \   102.61mV
    V(X_U15.N3128929)         =     2.250V  \    92.35mV
    V(X_U15.N3128939)         =     2.500V  \   102.61mV
    V(X_U15.N2987301)         =     2.500V  \   102.61mV
    V(X_U15.N2987319)         =     2.500V  \   102.61mV
    V(X_U15.N2987363)         =    58.04mV  \   117.73mV
    V(X_U15.N2987487)         =     2.500V  \   102.61mV
    V(X_U15.N2987493)         =     2.500V  \   102.61mV
    V(X_U15.SW_OL_OPAx333)    =     2.500V  \   102.61mV
    V(X_U15.VIMON)            =     2.510V  \   112.55mV
    V(X_U15.N3130359)         =     2.502V  \   106.69mV
    V(X_U15.N3130349)         =     2.500V  \   102.62mV
    V(X_U15.CLAMP)            =    58.04mV  \   117.73mV
    V(X_U15.N32898091)        =    -19.91V  \     4.066V
    V(X_U15.N3116655)         =    -19.91V  \     4.066V
    V(X_U15.N3116665)         =     2.500V  \   102.66mV
    V(X_U15.N3330020)         =  -774.58mV  \   122.88mV
    V(X_U15.N3330030)         =    57.38mV  \   117.73mV
    V(X_U15.N3108917)         =    58.04mV  \   117.73mV
    V(X_U15.N3108949)         =    58.05mV  \   117.73mV
    V(X_U15.VCLP)             =    56.29mV  \   117.73mV
    V(X_U15.N3202153)         =    -19.91V  \     4.066V
    V(X_U15.N3342059)         =    -14.67V  \     3.140V
    V(X_U15.N3108913)         =    58.04mV  \   117.73mV
    V(X_U15.N3236820)         =     2.502V  \   106.69mV
    V(X_U15.N3236810)         =     2.500V  \   102.62mV
    V(X_U15.N3330557)         =    -4.571V  \   146.37mV
    V(X_U15.N3330567)         =    57.25mV  \   117.73mV
    V(X_U15.N3331119)         =  -103.96mV  \   118.73mV
    V(X_U15.N3109045)         =    56.29mV  \   117.73mV
    V(X_U15.N33449121)        =    -19.91V  \     4.066V
    V(X_U15.N3355872)         =     2.500V  \   102.61mV
    V(X_U15.N3355880)         =     2.500V  \   102.61mV
    V(X_U15.N3369111)         =     2.500V  \   102.61mV
    V(X_U15.N3369121)         =     2.500V  \   102.61mV
    V(X_U15.N3116457)         =    56.29mV  \   117.73mV
    V(X_U15.CL_CLAMP)         =    56.29mV  \   117.73mV
    V(X_U15.CLAW_CLAMP)       =    56.29mV  \   117.73mV
    V(X_U15.N3116675)         =    -19.91V  \     4.039V
    V(X_U15.VEE_B)            =    2.500uV  \   102.61nV
    V(X_U15.N2986947)         =     2.500V  \   102.61mV
    V(X_U15.N2987687)         =    -10.84V  \    -10.78V
    V(X_U15.N2987683)         =    -10.84V  \    -10.78V
    V(X_U15.N2987711)         =     10.96V  \     11.02V
    V(X_U15.N2987719)         =     10.96V  \     11.02V
    V(X_U15.N3344856)         =    -19.91V  \     4.066V
    V(X_U15.VSENSE)           =    58.04mV  \   117.73mV
    V(X_U15.N3116685)         =    -19.91V  \     4.066V
    V(X_U15.N2986975)         =     2.500V  \   102.62mV
    V(X_U15.N2986973)         =     2.500V  \   102.61mV
    V(X_U15.N3344868)         =    -19.91V  \     4.066V
    V(X_U15.N2987061)         =     2.500V  \   102.57mV
    V(X_U15.N3116957)         =    -19.91V  \     4.066V
    V(X_U15.N2987123)         =     2.500V  \   102.61mV
    V(X_U15.N2987157)         =     2.500V  \   102.61mV
    V(X_U15.N2987201)         =     7.500V  \     5.103V
    V(X_U15.N2987203)         =     2.500V  \   102.61mV
    V(X_U15.N2987231)         =     2.500V  \   102.61mV
    V(X_U15.N2987243)         =    -7.477V  \     -9.87V
    V(X_U15.N2987295)         =    171.50V  \    169.10V
    V(X_U15.N2987299)         =     2.500V  \   102.61mV
    V(X_U15.N2987325)         =     2.500V  \   102.61mV
    V(X_U15.N2987337)         =   -186.50V  \   -188.90V
    V(X_U15.V11)              =     2.500V  \   102.61mV
    V(X_U15.V12)              =     2.500V  \   102.61mV
    V(X_U15.N2987499)         =     2.500V  \   102.61mV
    V(X_U15.N2987541)         =     2.510V  \   112.55mV
    V(X_U16.N3126023)         =     2.273V  \    98.47mV
    V(X_U16.N3126031)         =     2.500V  \   102.61mV
    V(X_U16.N3116503)         =    -22.95V  \   272.96mV
    V(X_U16.N3116515)         =     2.273V  \   110.59mV
    V(X_U16.N2987763)         =     2.500V  \   102.61mV
    V(X_U16.N2987801)         =    2.503uV  \   102.71nV
    V(X_U16.MID)              =     2.500V  \   102.61mV
    V(X_U16.N2987135)         =     2.500V  \   102.61mV
    V(X_U16.N2987159)         =     2.500V  \   102.61mV
    V(X_U16.N2987205)         =     2.500V  \   102.61mV
    V(X_U16.N2987225)         =     2.500V  \   102.61mV
    V(X_U16.N3128929)         =     2.250V  \    92.35mV
    V(X_U16.N3128939)         =     2.500V  \   102.61mV
    V(X_U16.N2987301)         =     2.500V  \   102.61mV
    V(X_U16.N2987319)         =     2.500V  \   102.61mV
    V(X_U16.N2987363)         =    20.34mV  \    87.19mV
    V(X_U16.N2987487)         =     2.500V  \   102.61mV
    V(X_U16.N2987493)         =     2.500V  \   102.61mV
    V(X_U16.SW_OL_OPAx333)    =     2.500V  \   102.61mV
    V(X_U16.VIMON)            =     2.503V  \   105.47mV
    V(X_U16.N3130359)         =     2.502V  \   106.69mV
    V(X_U16.N3130349)         =     2.500V  \   102.62mV
    V(X_U16.CLAMP)            =    20.34mV  \    87.19mV
    V(X_U16.N32898091)        =    -22.95V  \     1.024V
    V(X_U16.N3116655)         =    -22.95V  \     1.023V
    V(X_U16.N3116665)         =     2.500V  \   102.62mV
    V(X_U16.N3330020)         =  -825.13mV  \    81.94mV
    V(X_U16.N3330030)         =    19.67mV  \    87.19mV
    V(X_U16.N3108917)         =    20.35mV  \    87.19mV
    V(X_U16.N3108949)         =    20.35mV  \    87.19mV
    V(X_U16.VCLP)             =    18.57mV  \    87.18mV
    V(X_U16.N3202153)         =    -22.95V  \     1.023V
    V(X_U16.N3342059)         =    -17.01V  \   808.16mV
    V(X_U16.N3108913)         =    20.35mV  \    87.19mV
    V(X_U16.N3236820)         =     2.502V  \   106.69mV
    V(X_U16.N3236810)         =     2.500V  \   102.62mV
    V(X_U16.N3330557)         =    -4.680V  \    57.96mV
    V(X_U16.N3330567)         =    19.54mV  \    87.18mV
    V(X_U16.N3331119)         =  -144.15mV  \    86.17mV
    V(X_U16.N3109045)         =    18.57mV  \    87.18mV
    V(X_U16.N33449121)        =    -22.95V  \     1.023V
    V(X_U16.N3355872)         =     2.500V  \   102.61mV
    V(X_U16.N3355880)         =     2.500V  \   102.61mV
    V(X_U16.N3369111)         =     2.500V  \   102.61mV
    V(X_U16.N3369121)         =     2.500V  \   102.61mV
    V(X_U16.N3116457)         =    18.57mV  \    87.18mV
    V(X_U16.CL_CLAMP)         =    18.57mV  \    87.18mV
    V(X_U16.CLAW_CLAMP)       =    18.57mV  \    87.18mV
    V(X_U16.N3116675)         =    -22.95V  \     0.996V
    V(X_U16.VEE_B)            =    2.500uV  \   102.61nV
    V(X_U16.N2986947)         =     2.500V  \   102.61mV
    V(X_U16.N2987687)         =    -10.88V  \    -10.81V
    V(X_U16.N2987683)         =    -10.88V  \    -10.81V
    V(X_U16.N2987711)         =     10.92V  \     10.99V
    V(X_U16.N2987719)         =     10.92V  \     10.99V
    V(X_U16.N3344856)         =    -22.95V  \     1.023V
    V(X_U16.VSENSE)           =    20.34mV  \    87.19mV
    V(X_U16.N3116685)         =    -22.95V  \     1.023V
    V(X_U16.N2986975)         =     2.500V  \   102.62mV
    V(X_U16.N2986973)         =     2.500V  \   102.61mV
    V(X_U16.N3344868)         =    -22.95V  \     1.023V
    V(X_U16.N2987061)         =     2.500V  \   102.57mV
    V(X_U16.N3116957)         =    -22.95V  \     1.023V
    V(X_U16.N2987123)         =     2.500V  \   102.61mV
    V(X_U16.N2987157)         =     2.500V  \   102.61mV
    V(X_U16.N2987201)         =     7.500V  \     5.103V
    V(X_U16.N2987203)         =     2.500V  \   102.61mV
    V(X_U16.N2987231)         =     2.500V  \   102.61mV
    V(X_U16.N2987243)         =    -7.477V  \     -9.87V
    V(X_U16.N2987295)         =    171.50V  \    169.10V
    V(X_U16.N2987299)         =     2.500V  \   102.61mV
    V(X_U16.N2987325)         =     2.500V  \   102.61mV
    V(X_U16.N2987337)         =   -186.50V  \   -188.90V
    V(X_U16.V11)              =     2.500V  \   102.61mV
    V(X_U16.V12)              =     2.500V  \   102.61mV
    V(X_U16.N2987499)         =     2.500V  \   102.61mV
    V(X_U16.N2987541)         =     2.503V  \   105.47mV
    V(X_U14.N2987675)         =     10.85V  \     10.93V
    V(X_U14.N2987655)         =    -11.28V  \    -11.20V
    V(X_U15.N2987675)         =     10.96V  \     11.02V
    V(X_U15.N2987655)         =    -10.84V  \    -10.78V
    V(X_U16.N2987675)         =     10.92V  \     10.99V
    V(X_U16.N2987655)         =    -10.88V  \    -10.81V

  These supply currents failed to converge:

    I(X_U14.E_E1)             =    66.13pA  \    3.644nA
    I(X_U14.E_E3)             =    2.470pA  \   167.10fA
    I(X_U15.E_E1)             =    40.03pA  \    5.306nA
    I(X_U15.E_E3)             =    2.384pA  \   796.17fA
    I(X_U16.E_E1)             =    34.37pA  \    1.056nA
    I(X_U16.E_E3)             =    2.413pA  \   956.09fA
    I(X_U14.X_U38.E3)         =    64.86pA  \    69.65pA
    I(X_U15.X_U38.E3)         =    65.14pA  \    69.94pA
    I(X_U16.X_U38.E3)         =    65.11pA  \    69.91pA
    I(X_U14.V_VCM_MAX)        =   -2.601pA  \   -4.998pA
    I(X_U14.V_VCM_MIN)        =    2.600pA  \   202.62fA
    I(X_U15.V_VCM_MAX)        =   -2.601pA  \   -4.998pA
    I(X_U15.V_VCM_MIN)        =    2.600pA  \   202.62fA
    I(X_U16.V_VCM_MAX)        =   -2.601pA  \   -4.996pA
    I(X_U16.V_VCM_MIN)        =    2.600pA  \   202.62fA

**** Interrupt ****
