
**** 04/20/26 17:43:41 **** PSpice 25.1.0 (28 January 2026) *** ID# 0 ********

 ** Profile: "SCHEMATIC1-S2"  [ D:\dcser\Documents\Universidad\ISE\B2\amp_ins\amp_ins-pspicefiles\schematic1\s2.sim ] 


 ****     CIRCUIT DESCRIPTION


******************************************************************************




** Creating circuit file "S2.cir" 
** WARNING: THIS AUTOMATICALLY GENERATED FILE MAY BE OVERWRITTEN BY SUBSEQUENT SIMULATIONS

*Libraries: 
* Profile Libraries :
* Local Libraries :
* From [PSPICE NETLIST] section of C:\Users\dcser\AppData\Roaming\SPB_Data\cdssetup\OrCAD_PSpice\25.1.0\PSpice.ini file:
.lib "D:\dcser\Documents\Universidad\ISE\B2\sboc084g\OPAx333.LIB" 
.lib "D:\dcser\Documents\Universidad\6¤\2S\ISE\B2\sloj050b\OP07C.LIB" 
.lib "D:\dcser\Documents\Universidad\ISE\B2\sglm009d\lmx24_lm2902.lib" 
.lib "D:\dcser\Documents\Universidad\ISE\B2\sloc063b\TLV2372_PSPICE_AIO\TLV2372.LIB" 
.lib "C:\Cadence\OrCADX_25.1\tools\pspice\Library\opamp.lib" 
.lib "D:\dcser\Documents\Universidad\ISE\B2\snom268c\lmx58_lm2904.lib" 
.lib "nom.lib" 

*Analysis directives: 
.TRAN  0 10s 0 
.OPTIONS ADVCONV
.PROBE64 V(alias(*)) I(alias(*)) W(alias(*)) D(alias(*)) NOISE(alias(*)) 
.INC "..\SCHEMATIC1.net" 



**** INCLUDING SCHEMATIC1.net ****
* source AMP_INS
R_R1         N00716 N00513  10k TC=0,0 
R_R2         N00721 N00716  1k TC=0,0 
R_R3         N04795 N00721  10k TC=0,0 
R_R4         N00520 N00513  10k TC=0,0 
R_R5         N00646 N00520  10k TC=0,0 
R_R6         N04771 N04795  10k TC=0,0 
R_R7         0 N04771  10k TC=0,0 
R_R8         N01164 N01152  0.1 TC=0,0 
V_V1         VCC 0 5Vdc
R_R9         0 N01164  10k TC=0,0 
R_R10         0 N01152  10k TC=0,0 
I_I1         N01152 N01164 DC 1.5Adc  
X_U1         N01152 N00716 VCC 0 N00513 OP07C
X_U2         N01164 N00721 VCC 0 N04795 OP07C
X_U3         N04771 N00520 VCC 0 N00646 OP07C

**** RESUMING S2.cir ****
.END
